@<TRIPOS>MOLECULE
LIG
   50    49     1     0     0
SMALL
bcc


@<TRIPOS>ATOM
      1 CA           5.1530     3.9900    -8.4730 c3         1 LIG      -0.077400
      2 CB           5.8220     4.7510    -7.3440 c3         1 LIG      -0.078400
      3 CG           2.1890     6.3200    -5.0180 c3         1 LIG      -0.093100
      4 CD           5.4290     6.0550    -5.3180 c3         1 LIG      -0.077400
      5 CE           4.5380     7.0420    -4.6830 c3         1 LIG      -0.077400
      6 C1          -0.6890    -1.5160    -2.5320 c          1 LIG       0.623100
      7 O1          -1.0380    -0.8790    -1.5350 oh         1 LIG      -0.583100
      8 C2          -0.0900    -0.7730    -3.6910 c3         1 LIG      -0.179400
      9 O2          -0.8370    -2.7420    -2.6380 o          1 LIG      -0.486000
     10 C3           0.8970     0.2680    -3.2300 c3         1 LIG      -0.077400
     11 C4           1.2480     1.1840    -4.3790 c3         1 LIG      -0.079400
     12 C5           2.4490     0.7150    -5.1340 c3         1 LIG      -0.081400
     13 C6           2.1520     0.6370    -6.6180 c3         1 LIG      -0.077400
     14 C7           3.3710     0.8450    -7.4690 c3         1 LIG      -0.078400
     15 C8           3.8750     2.2420    -7.2830 c3         1 LIG      -0.080400
     16 C9           5.0290     2.5220    -8.1730 c3         1 LIG      -0.077400
     17 CC           4.8280     5.5060    -6.5740 c3         1 LIG      -0.080400
     18 CF           3.3290     6.3890    -4.0770 c3         1 LIG      -0.078400
     19 H            4.1740     4.3940    -8.6280 hc         1 LIG       0.039200
     20 H1           5.7610     4.0970    -9.3470 hc         1 LIG       0.039200
     21 H2           6.5400     5.4300    -7.7540 hc         1 LIG       0.039700
     22 H3           6.3050     4.0520    -6.6940 hc         1 LIG       0.039700
     23 H4           1.3580     5.8480    -4.5370 hc         1 LIG       0.032033
     24 H5           2.4720     5.7530    -5.8800 hc         1 LIG       0.032033
     25 H6           1.9130     7.3100    -5.3170 hc         1 LIG       0.032033
     26 H7           6.3590     6.5270    -5.5550 hc         1 LIG       0.038700
     27 H8           5.5780     5.2460    -4.6340 hc         1 LIG       0.038700
     28 H9           4.2180     7.7460    -5.4220 hc         1 LIG       0.039200
     29 H10          5.0820     7.5280    -3.9010 hc         1 LIG       0.039200
     30 H11         -0.9050     0.0480    -1.5010 ho         1 LIG       0.423000
     31 H12          0.4130    -1.4700    -4.3280 hc         1 LIG       0.079200
     32 H13         -0.8800    -0.2770    -4.2160 hc         1 LIG       0.079200
     33 H14          0.4640     0.8420    -2.4380 hc         1 LIG       0.049200
     34 H15          1.7850    -0.2170    -2.8800 hc         1 LIG       0.049200
     35 H16          0.4160     1.2280    -5.0500 hc         1 LIG       0.044200
     36 H17          1.4740     2.1470    -3.9710 hc         1 LIG       0.044200
     37 H18          3.2550     1.4000    -4.9730 hc         1 LIG       0.043700
     38 H19          2.7160    -0.2610    -4.7850 hc         1 LIG       0.043700
     39 H20          1.7450    -0.3290    -6.8350 hc         1 LIG       0.039700
     40 H21          1.4610     1.4210    -6.8490 hc         1 LIG       0.039700
     41 H22          4.1310     0.1500    -7.1800 hc         1 LIG       0.040200
     42 H23          3.1200     0.6900    -8.4970 hc         1 LIG       0.040200
     43 H24          3.0870     2.9300    -7.5080 hc         1 LIG       0.041700
     44 H25          4.1960     2.3530    -6.2680 hc         1 LIG       0.041700
     45 H26          5.9260     2.1880    -7.6940 hc         1 LIG       0.038200
     46 H27          4.8730     2.0040    -9.0960 hc         1 LIG       0.038200
     47 H28          4.0160     4.8570    -6.3190 hc         1 LIG       0.040700
     48 H29          4.4810     6.3230    -7.1720 hc         1 LIG       0.040700
     49 H30          3.5890     5.3950    -3.7800 hc         1 LIG       0.037700
     50 H31          3.0240     6.9830    -3.2410 hc         1 LIG       0.037700
@<TRIPOS>BOND
     1     1     2 1   
     2     1    16 1   
     3     1    19 1   
     4     1    20 1   
     5     2    17 1   
     6     2    21 1   
     7     2    22 1   
     8     3    18 1   
     9     3    23 1   
    10     3    24 1   
    11     3    25 1   
    12     4     5 1   
    13     4    17 1   
    14     4    26 1   
    15     4    27 1   
    16     5    18 1   
    17     5    28 1   
    18     5    29 1   
    19     6     7 1   
    20     6     8 1   
    21     6     9 2   
    22     7    30 1   
    23     8    10 1   
    24     8    31 1   
    25     8    32 1   
    26    10    11 1   
    27    10    33 1   
    28    10    34 1   
    29    11    12 1   
    30    11    35 1   
    31    11    36 1   
    32    12    13 1   
    33    12    37 1   
    34    12    38 1   
    35    13    14 1   
    36    13    39 1   
    37    13    40 1   
    38    14    15 1   
    39    14    41 1   
    40    14    42 1   
    41    15    16 1   
    42    15    43 1   
    43    15    44 1   
    44    16    45 1   
    45    16    46 1   
    46    17    47 1   
    47    17    48 1   
    48    18    49 1   
    49    18    50 1   
@<TRIPOS>SUBSTRUCTURE
     1 LIG         1 TEMP              0 ****  ****    0 ROOT
