@<TRIPOS>MOLECULE
LIG
   44    43     1     0     0
SMALL
bcc


@<TRIPOS>ATOM
      1 C1          -3.2260    -0.7830    -3.0860 c          1 LIG       0.623100
      2 O1          -3.8490    -0.7410    -4.1240 o          1 LIG      -0.486000
      3 C2          -3.0170     0.4820    -2.3450 c3         1 LIG      -0.179400
      4 O2          -2.7840    -1.8210    -2.6110 oh         1 LIG      -0.583100
      5 C3          -1.6650     0.5620    -1.7980 c3         1 LIG      -0.079400
      6 C4          -1.5470     1.8050    -1.0130 c3         1 LIG      -0.079400
      7 C5          -0.1440     2.0030    -0.6390 c3         1 LIG      -0.079400
      8 C6          -0.0350     3.1770     0.2100 c3         1 LIG      -0.079400
      9 C7           1.3930     3.4390     0.4340 c3         1 LIG      -0.079400
     10 C8           1.5640     4.2210     1.6660 c3         1 LIG      -0.079400
     11 C9           2.9930     4.4890     1.8570 c3         1 LIG      -0.078400
     12 C10          3.2760     4.7380     3.2690 c3         1 LIG      -0.077400
     13 C11          2.8040     3.6240     4.1270 c3         1 LIG      -0.078400
     14 C12          3.7740     2.5090     4.1580 c3         1 LIG      -0.078400
     15 C13          3.2980     1.3530     4.9160 c3         1 LIG      -0.079400
     16 C14          1.8270     1.2210     5.0500 c3         1 LIG      -0.092100
     17 H           -3.7210     0.5350    -1.5410 hc         1 LIG       0.078700
     18 H1          -3.1540     1.2970    -3.0250 hc         1 LIG       0.078700
     19 H2          -2.3080    -1.8020    -1.8040 ho         1 LIG       0.423000
     20 H3          -0.9530     0.5710    -2.5970 hc         1 LIG       0.049700
     21 H4          -1.4730    -0.2850    -1.1720 hc         1 LIG       0.049700
     22 H5          -2.1460     1.7300    -0.1300 hc         1 LIG       0.044200
     23 H6          -1.8850     2.6350    -1.5980 hc         1 LIG       0.044200
     24 H7           0.4450     2.1440    -1.5210 hc         1 LIG       0.042700
     25 H8           0.2110     1.1430    -0.1100 hc         1 LIG       0.042700
     26 H9          -0.5230     2.9960     1.1450 hc         1 LIG       0.040700
     27 H10         -0.5010     4.0200    -0.2570 hc         1 LIG       0.040700
     28 H11          1.7880     3.9890    -0.3940 hc         1 LIG       0.040200
     29 H12          1.9140     2.5090     0.5280 hc         1 LIG       0.040200
     30 H13          1.1870     3.6670     2.5000 hc         1 LIG       0.040200
     31 H14          1.0270     5.1430     1.5910 hc         1 LIG       0.040200
     32 H15          3.2710     5.3490     1.2840 hc         1 LIG       0.039700
     33 H16          3.5540     3.6370     1.5340 hc         1 LIG       0.039700
     34 H17          2.7830     5.6390     3.5680 hc         1 LIG       0.039200
     35 H18          4.3360     4.8240     3.3870 hc         1 LIG       0.039200
     36 H19          1.8720     3.2630     3.7450 hc         1 LIG       0.039700
     37 H20          2.6910     3.9960     5.1240 hc         1 LIG       0.039700
     38 H21          4.6810     2.8590     4.6050 hc         1 LIG       0.039200
     39 H22          3.9220     2.1880     3.1480 hc         1 LIG       0.039200
     40 H23          3.7120     1.4150     5.9010 hc         1 LIG       0.037700
     41 H24          3.6140     0.4950     4.3600 hc         1 LIG       0.037700
     42 H25          1.4430     2.0540     5.6010 hc         1 LIG       0.032033
     43 H26          1.5960     0.3140     5.5680 hc         1 LIG       0.032033
     44 H27          1.3810     1.2000     4.0780 hc         1 LIG       0.032033
@<TRIPOS>BOND
     1     1     2 2   
     2     1     3 1   
     3     1     4 1   
     4     3     5 1   
     5     3    17 1   
     6     3    18 1   
     7     4    19 1   
     8     5     6 1   
     9     5    20 1   
    10     5    21 1   
    11     6     7 1   
    12     6    22 1   
    13     6    23 1   
    14     7     8 1   
    15     7    24 1   
    16     7    25 1   
    17     8     9 1   
    18     8    26 1   
    19     8    27 1   
    20     9    10 1   
    21     9    28 1   
    22     9    29 1   
    23    10    11 1   
    24    10    30 1   
    25    10    31 1   
    26    11    12 1   
    27    11    32 1   
    28    11    33 1   
    29    12    13 1   
    30    12    34 1   
    31    12    35 1   
    32    13    14 1   
    33    13    36 1   
    34    13    37 1   
    35    14    15 1   
    36    14    38 1   
    37    14    39 1   
    38    15    16 1   
    39    15    40 1   
    40    15    41 1   
    41    16    42 1   
    42    16    43 1   
    43    16    44 1   
@<TRIPOS>SUBSTRUCTURE
     1 LIG         1 TEMP              0 ****  ****    0 ROOT
