@<TRIPOS>MOLECULE
LIG
   32    31     1     0     0
SMALL
bcc


@<TRIPOS>ATOM
      1 C1           0.8980    -2.0460    -4.5190 c          1 LIG       0.623100
      2 O1           1.2700    -1.5100    -3.4430 oh         1 LIG      -0.583100
      3 C2           1.7280    -1.8680    -5.7880 c3         1 LIG      -0.179400
      4 O2          -0.1590    -2.7290    -4.5490 o          1 LIG      -0.487000
      5 C3           3.1240    -1.3200    -5.4970 c3         1 LIG      -0.078400
      6 C4           3.9140    -1.0420    -6.7740 c3         1 LIG      -0.079400
      7 C5           3.9530     0.4450    -7.1190 c3         1 LIG      -0.081400
      8 C6           5.3790     0.9560    -7.3120 c3         1 LIG      -0.078400
      9 C7           5.4220     2.4490    -7.6310 c3         1 LIG      -0.079400
     10 C8           4.4190     3.2480    -6.8020 c3         1 LIG      -0.078400
     11 C9           5.0760     4.4100    -6.0590 c3         1 LIG      -0.080400
     12 C10          4.1390     5.6070    -5.9120 c3         1 LIG      -0.093100
     13 H            2.0570    -1.0020    -3.4200 ho         1 LIG       0.424000
     14 H1           1.8250    -2.8180    -6.2710 hc         1 LIG       0.079200
     15 H2           1.2230    -1.1610    -6.4120 hc         1 LIG       0.079200
     16 H3           3.0280    -0.4080    -4.9460 hc         1 LIG       0.050200
     17 H4           3.6560    -2.0600    -4.9370 hc         1 LIG       0.050200
     18 H5           4.9170    -1.3910    -6.6410 hc         1 LIG       0.047700
     19 H6           3.4260    -1.5520    -7.5780 hc         1 LIG       0.047700
     20 H7           3.4050     0.6030    -8.0240 hc         1 LIG       0.041700
     21 H8           3.5190     0.9830    -6.3020 hc         1 LIG       0.041700
     22 H9           5.9320     0.7800    -6.4130 hc         1 LIG       0.039700
     23 H10          5.8050     0.4320    -8.1420 hc         1 LIG       0.039700
     24 H11          5.1980     2.5860    -8.6680 hc         1 LIG       0.042200
     25 H12          6.4020     2.8060    -7.3930 hc         1 LIG       0.042200
     26 H13          3.9660     2.5940    -6.0860 hc         1 LIG       0.037200
     27 H14          3.6920     3.6570    -7.4730 hc         1 LIG       0.037200
     28 H15          5.9450     4.7180    -6.6020 hc         1 LIG       0.039700
     29 H16          5.3290     4.0700    -5.0770 hc         1 LIG       0.039700
     30 H17          3.8690     5.9690    -6.8820 hc         1 LIG       0.033367
     31 H18          4.6340     6.3830    -5.3670 hc         1 LIG       0.033367
     32 H19          3.2580     5.3070    -5.3850 hc         1 LIG       0.033367
@<TRIPOS>BOND
     1     1     2 1   
     2     1     3 1   
     3     1     4 2   
     4     2    13 1   
     5     3     5 1   
     6     3    14 1   
     7     3    15 1   
     8     5     6 1   
     9     5    16 1   
    10     5    17 1   
    11     6     7 1   
    12     6    18 1   
    13     6    19 1   
    14     7     8 1   
    15     7    20 1   
    16     7    21 1   
    17     8     9 1   
    18     8    22 1   
    19     8    23 1   
    20     9    10 1   
    21     9    24 1   
    22     9    25 1   
    23    10    11 1   
    24    10    26 1   
    25    10    27 1   
    26    11    12 1   
    27    11    28 1   
    28    11    29 1   
    29    12    30 1   
    30    12    31 1   
    31    12    32 1   
@<TRIPOS>SUBSTRUCTURE
     1 LIG         1 TEMP              0 ****  ****    0 ROOT
